
 Fire Dynamics Simulator

 Current Date     : June 24, 2025  09:43:09
 Revision         : FDS-6.9.1-0-g889da6a-release
 Revision Date    : Sun Apr 7 17:05:06 2024 -0400
 Compiler         : Intel(R) Fortran Intel(R) 64 Compiler Classic for applications running on Intel(R) 64, Version 2021.9.0 Build 20230302_000000
 Compilation Date : Tue 04/09/2024  01:25 PM

 Number of MPI Processes:  1

 MPI version: 3.1
 MPI library version: Intel(R) MPI Library 2021.6 for Windows* OS


 Job TITLE        : Dynamic Fire Simulation
 Job ID string    : fire_sim


 Grid Dimensions, Mesh     1

   Cells in the X Direction            20
   Cells in the Y Direction            21
   Cells in the Z Direction            15
   Number of Grid Cells              6300


 Physical Dimensions, Mesh     1

   Length (m)                      20.000
   Width  (m)                      21.000
   Height (m)                      15.000

 Miscellaneous Parameters

   Total Number of Grid Cells        6300
   Maximum Cell Aspect Ratio        1.000
   Initial Time Step (s)            0.412
   CFL Velocity Norm                    2
   Simulation Start Time (s)          0.0
   Simulation End Time (s)           60.0
   Background Pressure (Pa)     101325.00
   Ambient Temperature (C)          20.00

   3D Cartesian
   VLES Calculation
   Eddy Viscosity Model:  Deardorff (C_DEARDORFF = 0.10)
   Surface INERT Eddy Viscosity Model:  WALE (C_WALE = 0.60)
   Surface WALL Eddy Viscosity Model:  WALE (C_WALE = 0.60)
   Surface FIRE Eddy Viscosity Model:  WALE (C_WALE = 0.60)
   Turbulent Prandtl Number:         0.50
   Turbulent Schmidt Number:         0.50


 Pressure solver information

   Solver:                            FFT
   Velocity tolerance (m/s):    5.000E-01
   Press eqn res tol (1/s^2):   2.000E+01
   Max pressure iterations:            10


 Background Stratification

      Z (m)     P_0 (Pa)    TMP_0 (C)
   ------------------------------------
       14.50    101155.16     20.00
       13.50    101166.85     20.00
       12.50    101178.54     20.00
       11.50    101190.27     20.00
       10.50    101201.96     20.00
        9.50    101213.66     20.00
        8.50    101225.39     20.00
        7.50    101237.09     20.00
        6.50    101248.79     20.00
        5.50    101260.53     20.00
        4.50    101272.23     20.00
        3.50    101283.94     20.00
        2.50    101295.68     20.00
        1.50    101307.38     20.00
        0.50    101319.09     20.00


 Mass Fraction Transformation Matrix to Convert Species Mixtures (Columns) to Primitive Species (Rows)

                         AIR       PROPANE   PRODUCTS
   NITROGEN              0.762470  0.000000  0.716008
   OXYGEN                0.230997  0.000000  0.000000
   CARBON DIOXIDE        0.000591  0.000000  0.174870
   WATER VAPOR           0.005941  0.000000  0.105161
   CARBON MONOXIDE       0.000000  0.000000  0.003047
   SOOT                  0.000000  0.000000  0.000914
   HYDROGEN              0.000000  0.000000  0.000000
   HYDROGEN CYANIDE      0.000000  0.000000  0.000000
   PROPANE               0.000000  1.000000  0.000000


 Primitive Species Information

   NITROGEN
   Gas Species
   Molecular Weight (g/mol)                28.01340
   Ambient Density (kg/m^3)                1.165
           Enthalpy of Formation (J/kg)  0.000E+00

   OXYGEN
   Gas Species
   Molecular Weight (g/mol)                31.99880
   Ambient Density (kg/m^3)                1.330
           Enthalpy of Formation (J/kg)  0.000E+00

   CARBON DIOXIDE
   Gas Species
   Molecular Weight (g/mol)                44.00950
   Ambient Density (kg/m^3)                1.830
           Enthalpy of Formation (J/kg) -8.941E+06

   WATER VAPOR
   Gas Species
   Molecular Weight (g/mol)                18.01528
   Ambient Density (kg/m^3)                0.749
           Enthalpy of Formation (J/kg) -1.342E+07

   CARBON MONOXIDE
   Gas Species
   Molecular Weight (g/mol)                28.01010
   Ambient Density (kg/m^3)                1.164
           Enthalpy of Formation (J/kg) -3.946E+06

   SOOT
   Gas Species
   Molecular Weight (g/mol)                12.01070
   Ambient Density (kg/m^3)                0.499
           Enthalpy of Formation (J/kg)  0.000E+00

   HYDROGEN
   Gas Species
   Molecular Weight (g/mol)                 2.01588
   Ambient Density (kg/m^3)                0.084
           Enthalpy of Formation (J/kg)  0.000E+00

   HYDROGEN CYANIDE
   Gas Species
   Molecular Weight (g/mol)                27.02534
   Ambient Density (kg/m^3)                1.123
           Enthalpy of Formation (J/kg)  4.924E+06

   PROPANE
   Gas Species
   Molecular Weight (g/mol)                44.09562
   Ambient Density (kg/m^3)                1.833
           Enthalpy of Formation (J/kg) -2.374E+06


 Tracked (Lumped) Species Information

   AIR
   Molecular Weight (g/mol)            28.75198
   Ambient Density (kg/m^3)            1.195
   Initial Mass Fraction               1.000
   Enthalpy of Formation (J/kg)     -8.504E+04

   Sub Species                    Mass Fraction     Mole Fraction
   NITROGEN                       7.624699E-01      7.825727E-01
   OXYGEN                         2.309974E-01      2.075588E-01
   CARBON DIOXIDE                 5.914650E-04      3.864118E-04
   WATER VAPOR                    5.941209E-03      9.482037E-03
 
     Viscosity (kg/m/s) Ambient,  293 K:  1.796E-05
                                  500 K:  2.612E-05
                                 1000 K:  4.125E-05
                                 1500 K:  5.371E-05
                                 2000 K:  6.476E-05
   Therm. Cond. (W/m/K) Ambient,  293 K:  2.556E-02
                                  500 K:  3.814E-02
                                 1000 K:  6.686E-02
                                 1500 K:  9.249E-02
                                 2000 K:  1.153E-01
        Enthalpy (J/kg) Ambient,  293 K: -9.012E+04
                                  500 K:  1.222E+05
                                 1000 K:  6.721E+05
                                 1500 K:  1.270E+06
                                 2000 K:  1.896E+06
    Spec. Heat (J/kg/K) Ambient,  293 K:  1.016E+03
                                  500 K:  1.042E+03
                                 1000 K:  1.156E+03
                                 1500 K:  1.229E+03
                                 2000 K:  1.270E+03
   Diff. Coeff. (m^2/s) Ambient,  293 K:  1.991E-05
                                  500 K:  4.961E-05
                                 1000 K:  1.580E-04
                                 1500 K:  3.095E-04
                                 2000 K:  4.984E-04
 Gibbs Energy Amb. (kJ/mol),  293 K: -5.873E+01
                                  500 K: -1.007E+02
                                 1000 K: -2.117E+02
                                 1500 K: -3.312E+02
                                 2000 K: -4.568E+02

   PROPANE
   Molecular Weight (g/mol)            44.09562
   Ambient Density (kg/m^3)            1.833
   Initial Mass Fraction               0.000
   Enthalpy of Formation (J/kg)     -2.374E+06

   Sub Species                    Mass Fraction     Mole Fraction
   PROPANE                        1.000000E+00      1.000000E+00
 
     Viscosity (kg/m/s) Ambient,  293 K:  8.079E-06
                                  500 K:  1.310E-05
                                 1000 K:  2.234E-05
                                 1500 K:  2.955E-05
                                 2000 K:  3.574E-05
   Therm. Cond. (W/m/K) Ambient,  293 K:  1.821E-02
                                  500 K:  4.581E-02
                                 1000 K:  1.212E-01
                                 1500 K:  1.890E-01
                                 2000 K:  2.465E-01
        Enthalpy (J/kg) Ambient,  293 K: -2.382E+06
                                  500 K: -1.946E+06
                                 1000 K: -2.769E+05
                                 1500 K:  1.900E+06
                                 2000 K:  4.336E+06
    Spec. Heat (J/kg/K) Ambient,  293 K:  1.646E+03
                                  500 K:  2.553E+03
                                 1000 K:  3.960E+03
                                 1500 K:  4.669E+03
                                 2000 K:  5.034E+03
   Diff. Coeff. (m^2/s) Ambient,  293 K:  1.110E-05
                                  500 K:  2.862E-05
                                 1000 K:  9.316E-05
                                 1500 K:  1.833E-04
                                 2000 K:  2.954E-04
 Gibbs Energy Amb. (kJ/mol),  293 K: -1.839E+02
                                  500 K: -2.447E+02
                                 1000 K: -4.295E+02
                                 1500 K: -6.584E+02
                                 2000 K: -9.217E+02

   PRODUCTS
   Molecular Weight (g/mol)            28.12533
   Ambient Density (kg/m^3)            1.169
   Initial Mass Fraction               0.000
   Enthalpy of Formation (J/kg)     -2.987E+06

   Sub Species                    Mass Fraction     Mole Fraction
   NITROGEN                       7.160080E-01      7.188688E-01
   CARBON DIOXIDE                 1.748702E-01      1.117550E-01
   WATER VAPOR                    1.051609E-01      1.641765E-01
   CARBON MONOXIDE                3.046802E-03      3.059336E-03
   SOOT                           9.140407E-04      2.140399E-03
   HYDROGEN CYANIDE               0.000000E+00      0.000000E+00
 
     Viscosity (kg/m/s) Ambient,  293 K:  1.612E-05
                                  500 K:  2.389E-05
                                 1000 K:  3.894E-05
                                 1500 K:  5.144E-05
                                 2000 K:  6.246E-05
   Therm. Cond. (W/m/K) Ambient,  293 K:  2.343E-02
                                  500 K:  3.619E-02
                                 1000 K:  6.712E-02
                                 1500 K:  9.630E-02
                                 2000 K:  1.225E-01
        Enthalpy (J/kg) Ambient,  293 K: -2.993E+06
                                  500 K: -2.762E+06
                                 1000 K: -2.151E+06
                                 1500 K: -1.473E+06
                                 2000 K: -7.539E+05
    Spec. Heat (J/kg/K) Ambient,  293 K:  1.091E+03
                                  500 K:  1.143E+03
                                 1000 K:  1.298E+03
                                 1500 K:  1.404E+03
                                 2000 K:  1.467E+03
   Diff. Coeff. (m^2/s) Ambient,  293 K:  1.953E-05
                                  500 K:  4.958E-05
                                 1000 K:  1.602E-04
                                 1500 K:  3.149E-04
                                 2000 K:  5.080E-04
 Gibbs Energy Amb. (kJ/mol),  293 K: -1.517E+02
                                  500 K: -1.939E+02
                                 1000 K: -3.062E+02
                                 1500 K: -4.282E+02
                                 2000 K: -5.570E+02


 Gas Phase Reaction Information

      Fuel                                           Heat of Combustion (kJ/kg)
      PROPANE                                                        45338.0454
      EPUMO2:                                                        12736.0525

      Primitive Species Stoich. Coeff.
      Species ID                                                          Molar
      OXYGEN                                                          -4.905573
      CARBON DIOXIDE                                                   2.866216
      WATER VAPOR                                                      4.000000
      CARBON MONOXIDE                                                  0.078714
      SOOT                                                             0.055070
      PROPANE                                                         -1.000000

      Tracked (Lumped) Species Stoich. Coeff.
      Species ID                                             Molar         Mass
      AIR                                               -23.634614   -15.410647
      PROPANE                                            -1.000000    -1.000000
      PRODUCTS                                           25.729041    16.410647

      Reaction Kinetics

      Fast chemistry

      ODE Solver:  EXPLICIT EULER

      Extinction Model:  EXTINCTION 1
      Auto-Ignition Temperature (C):            -273.1
      Critical Flame Temperature (C):           1447.0

      Prescribed Radiative Fraction:             0.290


 Material Information

   1 WALL_MATERIAL
     Emissivity:                                  0.900
     Density (kg/m3):                             800.0
     Specific Heat (kJ/kg/K) Ambient,  293 K:  1.500E+00
                                       350 K:  1.500E+00
                                       500 K:  1.500E+00
                                       800 K:  1.500E+00
     Therm. Cond. (W/m/K) Ambient,     293 K:  5.000E-01
                                       350 K:  5.000E-01
                                       500 K:  5.000E-01
                                       800 K:  5.000E-01
     Enthalpy (kJ/kg) Ambient,         293 K:  4.395E+02
                                       350 K:  5.250E+02
                                       500 K:  7.500E+02
                                       800 K:  1.200E+03


 Surface Conditions

   0 INERT (DEFAULT)

   1 WALL
     Material List
          1  WALL_MATERIAL
     Layer  1
        Thickness   (m):  0.10000
        Density (kg/m3):   800.00
        WALL_MATERIAL, Mass fraction:    1.00
     Reaction products considered from the first -1.00 layers.
     Total surface density    80.000 kg/m2
     Solid Phase Node, Layer, Coordinates(m):
                    0      1       0.0000000
                    1      1       0.0005263
                    2      1       0.0015789
                    3      1       0.0036842
                    4      1       0.0078947
                    5      1       0.0163158
                    6      1       0.0331579
                    7      1       0.0668421
                    8      1       0.0836842
                    9      1       0.0921053
                   10      1       0.0963158
                   11      1       0.0984211
                   12      1       0.0994737
                   13      1       0.1000000
     Exposed Backing

   2 FIRE
     HRR Per Unit Area (kW/m2)        127.6
     PROPANE Mass Flux (kg/s/m2)   2.814E-03

   3 OPEN
     Passive Vent to Atmosphere

   4 MIRROR
     Symmetry Plane

   5 INTERPOLATED

   6 PERIODIC

   7 HVAC

   8 MASSLESS TRACER

   9 DROPLET

  10 MASSLESS TARGET

  11 PERIODIC FLOW ONLY


 Lagrangian Particle Classes


 Cut-off Density and Temperature

    Minimum Temperature:  -259.1 C
    Maximum Temperature:  2726.8 C
    Minimum Density:  1.195E-01 kg/m3
    Maximum Density:  7.677E+01 kg/m3


 Radiation Model Information

   Number of control angles  104
   Time step increment         3
   Angle increment             5
   Theta band N_phi   Solid angle
     1:        4     0.120
     2:       12     0.114
     3:       16     0.127
     4:       20     0.120
     5:       20     0.120
     6:       16     0.127
     7:       12     0.114
     8:        4     0.120
   Using gray gas absorption.
   Mean beam length  1.000E-01 m
 
 

 Run Time Diagnostics

       Time Step        1   June 24, 2025  09:43:09
       Step Size:    0.412E+00 s, Total Time:       0.41 s
       Pressure Iterations: 1
       Maximum Velocity Error:  0.15E-02 on Mesh 1 at (8,14,3)
       Maximum Pressure Error:  0.66E-06 on Mesh 1 at (8,15,2)
       ---------------------------------------------------------------
       Max CFL number:  0.10E-01 at (14,9,6)
       Max divergence:  0.16E-05 at (2,9,2)
       Min divergence: -0.28E-03 at (9,14,4)
       Max VN number:   0.99E-02 at (18,11,15)
 
       Time Step        2   June 24, 2025  09:43:09
       Step Size:    0.412E+00 s, Total Time:       0.82 s
       Pressure Iterations: 1
       Maximum Velocity Error:  0.23E-01 on Mesh 1 at (8,14,3)
       Maximum Pressure Error:  0.16E-02 on Mesh 1 at (8,15,3)
       ---------------------------------------------------------------
       Max CFL number:  0.10E-01 at (14,9,6)
       Max divergence:  0.13E+00 at (9,10,4)
       Min divergence: -0.16E-05 at (19,11,14)
       Max VN number:   0.99E-02 at (18,11,15)
       Total Heat Release Rate:           3919.470 kW
 
       Time Step        3   June 24, 2025  09:43:10
       Step Size:    0.412E+00 s, Total Time:       1.24 s
       Pressure Iterations: 1
       Maximum Velocity Error:  0.17E+00 on Mesh 1 at (8,14,3)
       Maximum Pressure Error:  0.14E+00 on Mesh 1 at (9,15,3)
       ---------------------------------------------------------------
       Max CFL number:  0.96E-01 at (13,13,4)
       Max divergence:  0.91E+00 at (8,15,3)
       Min divergence: -0.92E-06 at (19,11,14)
       Max VN number:   0.12E-01 at (10,13,4)
       Total Heat Release Rate:           9063.898 kW
       Radiation Loss to Boundaries:      -466.672 kW
 
       Time Step        4   June 24, 2025  09:43:10
       Step Size:    0.412E+00 s, Total Time:       1.65 s
       Pressure Iterations: 1
       Maximum Velocity Error:  0.49E+00 on Mesh 1 at (8,14,1)
       Maximum Pressure Error:  0.31E+01 on Mesh 1 at (8,14,4)
       ---------------------------------------------------------------
       Max CFL number:  0.57E+00 at (8,15,3)
       Max divergence:  0.15E+01 at (7,11,1)
       Min divergence: -0.21E+00 at (8,15,3)
       Max VN number:   0.10E+00 at (8,15,3)
       Total Heat Release Rate:          21187.222 kW
       Radiation Loss to Boundaries:     -2105.267 kW
 
       Time Step        5   June 24, 2025  09:43:10
       Step Size:    0.412E+00 s, Total Time:       2.06 s
       Pressure Iterations: 4
       Maximum Velocity Error:  0.17E+00 on Mesh 1 at (13,14,1)
       Maximum Pressure Error:  0.17E+02 on Mesh 1 at (7,11,1)
       ---------------------------------------------------------------
       Max CFL number:  0.92E+00 at (8,15,3)
       Max divergence:  0.32E+01 at (11,15,2)
       Min divergence: -0.90E+00 at (7,11,1)
       Max VN number:   0.26E+00 at (7,11,1)
       Total Heat Release Rate:          31963.829 kW
       Radiation Loss to Boundaries:     -9116.464 kW
 
       Time Step        6   June 24, 2025  09:43:10
       Step Size:    0.191E+00 s, Total Time:       2.25 s
       Pressure Iterations: 5
       Maximum Velocity Error:  0.44E+00 on Mesh 1 at (11,14,2)
       Maximum Pressure Error:  0.19E+02 on Mesh 1 at (11,15,1)
       ---------------------------------------------------------------
       Max CFL number:  0.94E+00 at (10,15,3)
       Max divergence:  0.56E+00 at (11,15,4)
       Min divergence: -0.14E+01 at (11,15,3)
       Max VN number:   0.25E+00 at (11,15,2)
       Total Heat Release Rate:          32989.264 kW
       Radiation Loss to Boundaries:    -26176.954 kW
       No. of CLIP DT restrictions:  1
 
       Time Step        7   June 24, 2025  09:43:10
       Step Size:    0.191E+00 s, Total Time:       2.44 s
       Pressure Iterations: 3
       Maximum Velocity Error:  0.42E+00 on Mesh 1 at (10,14,2)
       Maximum Pressure Error:  0.13E+02 on Mesh 1 at (10,15,1)
       ---------------------------------------------------------------
       Max CFL number:  0.80E+00 at (11,15,3)
       Max divergence:  0.10E+01 at (11,15,1)
       Min divergence: -0.26E+00 at (11,13,4)
       Max VN number:   0.22E+00 at (14,14,2)
       Total Heat Release Rate:          24658.695 kW
       Radiation Loss to Boundaries:    -12920.418 kW
 
       Time Step        8   June 24, 2025  09:43:10
       Step Size:    0.211E+00 s, Total Time:       2.65 s
       Pressure Iterations: 2
       Maximum Velocity Error:  0.36E+00 on Mesh 1 at (11,14,3)
       Maximum Pressure Error:  0.16E+02 on Mesh 1 at (11,15,1)
       ---------------------------------------------------------------
       Max CFL number:  0.85E+00 at (10,15,3)
       Max divergence:  0.73E+00 at (14,9,3)
       Min divergence: -0.68E+00 at (11,15,3)
       Max VN number:   0.31E+00 at (13,15,3)
       Total Heat Release Rate:          19667.702 kW
       Radiation Loss to Boundaries:    -12381.869 kW
 
       Time Step        9   June 24, 2025  09:43:10
       Step Size:    0.211E+00 s, Total Time:       2.87 s
       Pressure Iterations: 2
       Maximum Velocity Error:  0.25E+00 on Mesh 1 at (11,14,1)
       Maximum Pressure Error:  0.19E+02 on Mesh 1 at (10,15,1)
       ---------------------------------------------------------------
       Max CFL number:  0.99E+00 at (10,15,3)
       Max divergence:  0.54E+00 at (10,15,3)
       Min divergence: -0.12E+00 at (13,8,4)
       Max VN number:   0.33E+00 at (13,8,3)
       Total Heat Release Rate:          15826.170 kW
       Radiation Loss to Boundaries:     -4604.348 kW
 
       Time Step       10   June 24, 2025  09:43:10
       Step Size:    0.171E+00 s, Total Time:       3.04 s
       Pressure Iterations: 1
       Maximum Velocity Error:  0.25E+00 on Mesh 1 at (11,14,3)
       Maximum Pressure Error:  0.37E+01 on Mesh 1 at (11,14,4)
       ---------------------------------------------------------------
       Max CFL number:  0.89E+00 at (11,15,3)
       Max divergence:  0.18E+01 at (11,14,4)
       Min divergence: -0.28E+00 at (11,15,4)
       Max VN number:   0.31E+00 at (8,15,4)
       Total Heat Release Rate:          19104.970 kW
       Radiation Loss to Boundaries:     -3890.004 kW
 
       Time Step       20   June 24, 2025  09:43:11
       Step Size:    0.103E+00 s, Total Time:       4.30 s
       Pressure Iterations: 1
       Maximum Velocity Error:  0.48E-01 on Mesh 1 at (13,13,3)
       Maximum Pressure Error:  0.30E+01 on Mesh 1 at (11,15,9)
       ---------------------------------------------------------------
       Max CFL number:  0.88E+00 at (10,15,9)
       Max divergence:  0.25E+00 at (11,8,4)
       Min divergence: -0.18E+00 at (10,9,6)
       Max VN number:   0.31E+00 at (11,15,8)
       Total Heat Release Rate:          14551.210 kW
       Radiation Loss to Boundaries:      -117.672 kW
 
       Time Step       30   June 24, 2025  09:43:11
       Step Size:    0.901E-01 s, Total Time:       5.25 s
       Pressure Iterations: 1
       Maximum Velocity Error:  0.36E-01 on Mesh 1 at (11,11,3)
       Maximum Pressure Error:  0.63E+01 on Mesh 1 at (10,15,14)
       ---------------------------------------------------------------
       Max CFL number:  0.88E+00 at (10,15,14)
       Max divergence:  0.25E+00 at (13,9,4)
       Min divergence: -0.30E+00 at (10,15,13)
       Max VN number:   0.33E+00 at (11,15,13)
       Total Heat Release Rate:          12457.973 kW
       Radiation Loss to Boundaries:      -890.248 kW
 
       Time Step       40   June 24, 2025  09:43:12
       Step Size:    0.799E-01 s, Total Time:       6.14 s
       Pressure Iterations: 1
       Maximum Velocity Error:  0.36E-01 on Mesh 1 at (8,11,3)
       Maximum Pressure Error:  0.39E+01 on Mesh 1 at (11,16,15)
       ---------------------------------------------------------------
       Max CFL number:  0.89E+00 at (11,17,15)
       Max divergence:  0.25E+00 at (12,10,4)
       Min divergence: -0.27E+00 at (10,11,6)
       Max VN number:   0.58E+00 at (12,14,15)
       Total Heat Release Rate:          12052.991 kW
       Radiation Loss to Boundaries:     -1636.695 kW
 
       Time Step       50   June 24, 2025  09:43:12
       Step Size:    0.879E-01 s, Total Time:       6.97 s
       Pressure Iterations: 1
       Maximum Velocity Error:  0.20E-01 on Mesh 1 at (8,11,3)
       Maximum Pressure Error:  0.29E+01 on Mesh 1 at (12,11,12)
       ---------------------------------------------------------------
       Max CFL number:  0.93E+00 at (10,12,9)
       Max divergence:  0.23E+00 at (12,13,4)
       Min divergence: -0.10E+00 at (12,11,11)
       Max VN number:   0.69E+00 at (8,13,15)
       Total Heat Release Rate:          12197.741 kW
       Radiation Loss to Boundaries:     -1877.184 kW
 
       Time Step       60   June 24, 2025  09:43:13
       Step Size:    0.879E-01 s, Total Time:       7.84 s
       Pressure Iterations: 1
       Maximum Velocity Error:  0.12E-01 on Mesh 1 at (7,12,3)
       Maximum Pressure Error:  0.27E+01 on Mesh 1 at (11,12,10)
       ---------------------------------------------------------------
       Max CFL number:  0.87E+00 at (10,11,13)
       Max divergence:  0.23E+00 at (13,12,4)
       Min divergence: -0.13E+00 at (11,11,6)
       Max VN number:   0.46E+00 at (7,2,15)
       Total Heat Release Rate:          12153.215 kW
       Radiation Loss to Boundaries:     -1747.101 kW
 
       Time Step       70   June 24, 2025  09:43:13
       Step Size:    0.879E-01 s, Total Time:       8.72 s
       Pressure Iterations: 1
       Maximum Velocity Error:  0.21E-01 on Mesh 1 at (10,9,3)
       Maximum Pressure Error:  0.29E+01 on Mesh 1 at (11,10,15)
       ---------------------------------------------------------------
       Max CFL number:  0.92E+00 at (10,11,12)
       Max divergence:  0.20E+00 at (7,10,2)
       Min divergence: -0.14E+00 at (11,10,10)
       Max VN number:   0.42E+00 at (3,10,15)
       Total Heat Release Rate:          11998.941 kW
       Radiation Loss to Boundaries:     -1587.289 kW
 
       Time Step       80   June 24, 2025  09:43:14
       Step Size:    0.769E-01 s, Total Time:       9.58 s
       Pressure Iterations: 1
       Maximum Velocity Error:  0.15E-01 on Mesh 1 at (8,12,3)
       Maximum Pressure Error:  0.22E+01 on Mesh 1 at (11,10,15)
       ---------------------------------------------------------------
       Max CFL number:  0.83E+00 at (10,11,11)
       Max divergence:  0.20E+00 at (9,10,4)
       Min divergence: -0.14E+00 at (10,11,6)
       Max VN number:   0.46E+00 at (13,11,15)
       Total Heat Release Rate:          12339.019 kW
       Radiation Loss to Boundaries:     -1748.096 kW
 
       Time Step       90   June 24, 2025  09:43:14
       Step Size:    0.931E-01 s, Total Time:      10.43 s
       Pressure Iterations: 1
       Maximum Velocity Error:  0.97E-02 on Mesh 1 at (11,11,3)
       Maximum Pressure Error:  0.34E+01 on Mesh 1 at (10,10,15)
       ---------------------------------------------------------------
       Max CFL number:  0.89E+00 at (11,12,13)
       Max divergence:  0.22E+00 at (13,14,4)
       Min divergence: -0.11E+00 at (11,11,6)
       Max VN number:   0.53E+00 at (4,17,15)
       Total Heat Release Rate:          12210.343 kW
       Radiation Loss to Boundaries:     -1744.172 kW
 
       Time Step      100   June 24, 2025  09:43:15
       Step Size:    0.931E-01 s, Total Time:      11.36 s
       Pressure Iterations: 1
       Maximum Velocity Error:  0.90E-02 on Mesh 1 at (10,13,3)
       Maximum Pressure Error:  0.31E+01 on Mesh 1 at (11,13,15)
       ---------------------------------------------------------------
       Max CFL number:  0.87E+00 at (10,11,12)
       Max divergence:  0.20E+00 at (12,10,4)
       Min divergence: -0.12E+00 at (10,12,6)
       Max VN number:   0.47E+00 at (2,19,15)
       Total Heat Release Rate:          12151.686 kW
       Radiation Loss to Boundaries:     -1678.796 kW
 
       Time Step      200   June 24, 2025  09:43:19
       Step Size:    0.978E-01 s, Total Time:      21.04 s
       Pressure Iterations: 1
       Maximum Velocity Error:  0.56E-02 on Mesh 1 at (10,12,3)
       Maximum Pressure Error:  0.11E+01 on Mesh 1 at (11,6,15)
       ---------------------------------------------------------------
       Max CFL number:  0.85E+00 at (10,11,10)
       Max divergence:  0.21E+00 at (9,13,4)
       Min divergence: -0.87E-01 at (10,11,6)
       Max VN number:   0.50E+00 at (20,4,9)
       Total Heat Release Rate:          12196.087 kW
       Radiation Loss to Boundaries:     -1741.298 kW
 
       Time Step      300   June 24, 2025  09:43:24
       Step Size:    0.106E+00 s, Total Time:      30.98 s
       Pressure Iterations: 1
       Maximum Velocity Error:  0.76E-02 on Mesh 1 at (11,11,3)
       Maximum Pressure Error:  0.17E+01 on Mesh 1 at (11,11,15)
       ---------------------------------------------------------------
       Max CFL number:  0.96E+00 at (10,11,12)
       Max divergence:  0.21E+00 at (11,10,4)
       Min divergence: -0.72E-01 at (10,11,12)
       Max VN number:   0.50E+00 at (1,12,14)
       Total Heat Release Rate:          12219.980 kW
       Radiation Loss to Boundaries:     -1781.819 kW
 
       Time Step      400   June 24, 2025  09:43:29
       Step Size:    0.942E-01 s, Total Time:      41.03 s
       Pressure Iterations: 1
       Maximum Velocity Error:  0.14E-01 on Mesh 1 at (9,11,3)
       Maximum Pressure Error:  0.14E+01 on Mesh 1 at (11,11,15)
       ---------------------------------------------------------------
       Max CFL number:  0.84E+00 at (10,11,11)
       Max divergence:  0.21E+00 at (12,13,4)
       Min divergence: -0.11E+00 at (10,11,6)
       Max VN number:   0.45E+00 at (19,11,15)
       Total Heat Release Rate:          12253.031 kW
       Radiation Loss to Boundaries:     -1685.759 kW
 
       Time Step      500   June 24, 2025  09:43:35
       Step Size:    0.987E-01 s, Total Time:      50.99 s
       Pressure Iterations: 1
       Maximum Velocity Error:  0.16E-01 on Mesh 1 at (10,8,2)
       Maximum Pressure Error:  0.21E+01 on Mesh 1 at (10,12,15)
       ---------------------------------------------------------------
       Max CFL number:  0.89E+00 at (11,11,10)
       Max divergence:  0.22E+00 at (9,11,4)
       Min divergence: -0.12E+00 at (10,12,6)
       Max VN number:   0.45E+00 at (1,10,14)
       Total Heat Release Rate:          12117.692 kW
       Radiation Loss to Boundaries:     -1787.166 kW
 
       Time Step      593   June 24, 2025  09:43:40
       Step Size:    0.586E-01 s, Total Time:      60.00 s
       Pressure Iterations: 1
       Maximum Velocity Error:  0.64E-02 on Mesh 1 at (13,9,3)
       Maximum Pressure Error:  0.26E+01 on Mesh 1 at (11,11,15)
       ---------------------------------------------------------------
       Max CFL number:  0.54E+00 at (10,10,15)
       Max divergence:  0.23E+00 at (12,10,4)
       Min divergence: -0.12E+00 at (11,11,6)
       Max VN number:   0.42E+00 at (20,9,10)
       Total Heat Release Rate:          12783.677 kW
       Radiation Loss to Boundaries:     -1885.048 kW
 


 Time Stepping Wall Clock Time (s):       30.477
 Total Elapsed Wall Clock Time (s):       33.852

STOP: FDS completed successfully (CHID: fire_sim)
